Base_DSS_Code/Lineas.dss
New Line.line1	Phases=3	Bus1=bus1	Bus2=bus2	Geometry=4_240_AL	Length=28.204335	units=m
New Line.line2	Phases=3	Bus1=bus2	Bus2=bus4	Geometry=4_240_AL	Length=0.980077	units=m
New Line.line3	Phases=3	Bus1=bus3	Bus2=bus5	Geometry=4_240_AL	Length=25.420891	units=m
New Line.line4	Phases=3	Bus1=bus4	Bus2=bus6	Geometry=4_240_AL	Length=35.365260	units=m
New Line.line5	Phases=3	Bus1=bus5	Bus2=bus7	Geometry=4_240_AL	Length=2.455069	units=m
New Line.line6	Phases=3	Bus1=bus6	Bus2=bus8	Geometry=4_240_AL	Length=2.634879	units=m
New Line.line7	Phases=3	Bus1=bus7	Bus2=bus12	Geometry=4_240_AL	Length=6.005531	units=m
New Line.line8	Phases=3	Bus1=bus8	Bus2=bus10	Geometry=4_240_AL	Length=3.168699	units=m
New Line.line9	Phases=3	Bus1=bus10	Bus2=bus9	Geometry=4_240_AL	Length=3.021931	units=m
New Line.line10	Phases=3	Bus1=bus11	Bus2=bus16	Geometry=4_240_AL	Length=3.416224	units=m
New Line.line11	Phases=3	Bus1=bus11	Bus2=bus12	Geometry=4_240_AL	Length=8.440776	units=m
New Line.line12	Phases=3	Bus1=bus13	Bus2=bus15	Geometry=4_240_AL	Length=3.010952	units=m
New Line.line13	Phases=3	Bus1=bus10	Bus2=bus14	Geometry=4_240_AL	Length=3.708552	units=m
New Line.line14	Phases=3	Bus1=bus16	Bus2=bus17	Geometry=4_240_AL	Length=5.244491	units=m
New Line.line15	Phases=3	Bus1=bus17	Bus2=bus26	Geometry=4_240_AL	Length=15.443497	units=m
New Line.line16	Phases=3	Bus1=bus17	Bus2=bus18	Geometry=4_240_AL	Length=3.561484	units=m
New Line.line17	Phases=3	Bus1=bus20	Bus2=bus19	Geometry=4_240_AL	Length=1.711819	units=m
New Line.line18	Phases=3	Bus1=bus14	Bus2=bus22	Geometry=4_240_AL	Length=15.225635	units=m
New Line.line19	Phases=3	Bus1=bus22	Bus2=bus21	Geometry=4_240_AL	Length=3.135403	units=m
New Line.line20	Phases=3	Bus1=bus13	Bus2=bus23	Geometry=4_240_AL	Length=16.304684	units=m
New Line.line21	Phases=3	Bus1=bus23	Bus2=bus24	Geometry=4_240_AL	Length=2.802827	units=m
New Line.line22	Phases=3	Bus1=bus26	Bus2=bus25	Geometry=4_240_AL	Length=3.285580	units=m
New Line.line23	Phases=3	Bus1=bus26	Bus2=bus32	Geometry=4_240_AL	Length=14.081057	units=m
New Line.line24	Phases=3	Bus1=bus22	Bus2=bus28	Geometry=4_240_AL	Length=15.645929	units=m
New Line.line25	Phases=3	Bus1=bus28	Bus2=bus27	Geometry=4_240_AL	Length=3.197839	units=m
New Line.line26	Phases=3	Bus1=bus23	Bus2=bus30	Geometry=4_240_AL	Length=15.499868	units=m
New Line.line27	Phases=3	Bus1=bus30	Bus2=bus29	Geometry=4_240_AL	Length=2.523573	units=m
New Line.line28	Phases=3	Bus1=bus32	Bus2=bus31	Geometry=4_240_AL	Length=3.160539	units=m
New Line.line29	Phases=3	Bus1=bus28	Bus2=bus33	Geometry=4_240_AL	Length=15.429580	units=m
New Line.line30	Phases=3	Bus1=bus33	Bus2=bus34	Geometry=4_240_AL	Length=3.202346	units=m
New Line.line31	Phases=3	Bus1=bus33	Bus2=bus48	Geometry=4_240_AL	Length=12.711089	units=m
New Line.line32	Phases=3	Bus1=bus30	Bus2=bus36	Geometry=4_240_AL	Length=15.670404	units=m
New Line.line33	Phases=3	Bus1=bus36	Bus2=bus35	Geometry=4_240_AL	Length=2.476249	units=m
New Line.line34	Phases=3	Bus1=bus36	Bus2=bus39	Geometry=4_240_AL	Length=6.782982	units=m
New Line.line35	Phases=3	Bus1=bus1	Bus2=bus37	Geometry=4_240_AL	Length=63.877609	units=m
New Line.line36	Phases=3	Bus1=bus3	Bus2=bus38	Geometry=4_240_AL	Length=62.525844	units=m
New Line.line37	Phases=3	Bus1=bus39	Bus2=bus42	Geometry=4_240_AL	Length=2.366343	units=m
New Line.line38	Phases=3	Bus1=bus42	Bus2=bus43	Geometry=4_240_AL	Length=2.909078	units=m
New Line.line39	Phases=3	Bus1=bus44	Bus2=bus45	Geometry=4_240_AL	Length=2.575882	units=m
New Line.line40	Phases=3	Bus1=bus45	Bus2=bus40	Geometry=4_240_AL	Length=1.716493	units=m
New Line.line41	Phases=3	Bus1=bus45	Bus2=bus54	Geometry=4_240_AL	Length=55.573956	units=m
New Line.line42	Phases=3	Bus1=bus44	Bus2=bus46	Geometry=4_240_AL	Length=2.000687	units=m
New Line.line43	Phases=3	Bus1=bus37	Bus2=bus47	Geometry=4_240_AL	Length=7.004739	units=m
New Line.line44	Phases=3	Bus1=bus38	Bus2=bus47	Geometry=4_240_AL	Length=7.406840	units=m
New Line.line45	Phases=3	Bus1=bus43	Bus2=bus47	Geometry=4_240_AL	Length=8.561325	units=m
New Line.line46	Phases=3	Bus1=bus47	Bus2=bus51	Geometry=4_240_AL	Length=7.416073	units=m
New Line.line47	Phases=3	Bus1=bus48	Bus2=bus41	Geometry=4_240_AL	Length=4.494757	units=m
New Line.line48	Phases=3	Bus1=bus48	Bus2=bus52	Geometry=4_240_AL	Length=4.429288	units=m
New Line.line49	Phases=3	Bus1=bus20	Bus2=bus49	Geometry=4_240_AL	Length=52.361322	units=m
New Line.line50	Phases=3	Bus1=bus46	Bus2=bus49	Geometry=4_240_AL	Length=2.785516	units=m
New Line.line51	Phases=3	Bus1=bus50	Bus2=bus53	Geometry=4_240_AL	Length=1.816728	units=m
New Line.line52	Phases=3	Bus1=bus50	Bus2=bus51	Geometry=4_240_AL	Length=2.752944	units=m
New Line.line53	Phases=3	Bus1=bus47	Bus2=bus54	Geometry=4_240_AL	Length=9.721999	units=m
New Line.line54	Phases=3	Bus1=bus49	Bus2=bus55	Geometry=4_240_AL	Length=3.258042	units=m
New Line.line55	Phases=3	Bus1=bus56	Bus2=bus58	Geometry=4_240_AL	Length=0.556949	units=m
New Line.line56	Phases=3	Bus1=bus53	Bus2=bus58	Geometry=4_240_AL	Length=8.634850	units=m
New Line.line57	Phases=3	Bus1=bus58	Bus2=bus57	Geometry=4_240_AL	Length=3.272818	units=m
New Line.line58	Phases=3	Bus1=bus55	Bus2=bus60	Geometry=4_240_AL	Length=16.594683	units=m
New Line.line59	Phases=3	Bus1=bus60	Bus2=bus59	Geometry=4_240_AL	Length=3.000010	units=m
New Line.line60	Phases=3	Bus1=bus56	Bus2=bus61	Geometry=4_240_AL	Length=14.801541	units=m
New Line.line61	Phases=3	Bus1=bus61	Bus2=bus62	Geometry=4_240_AL	Length=2.874095	units=m
New Line.line62	Phases=3	Bus1=bus60	Bus2=bus64	Geometry=4_240_AL	Length=15.114923	units=m
New Line.line63	Phases=3	Bus1=bus64	Bus2=bus63	Geometry=4_240_AL	Length=3.000010	units=m
New Line.line64	Phases=3	Bus1=bus64	Bus2=bus65	Geometry=4_240_AL	Length=8.501854	units=m
New Line.line65	Phases=3	Bus1=bus61	Bus2=bus66	Geometry=4_240_AL	Length=19.545297	units=m
New Line.line66	Phases=3	Bus1=bus66	Bus2=bus67	Geometry=4_240_AL	Length=3.000010	units=m
New Line.line67	Phases=3	Bus1=bus66	Bus2=bus68	Geometry=4_240_AL	Length=2.158788	units=m
New Line.line68	Phases=3	Bus1=bus65	Bus2=bus69	Geometry=4_240_AL	Length=11.308972	units=m
New Line.line69	Phases=3	Bus1=bus69	Bus2=bus70	Geometry=4_240_AL	Length=3.201762	units=m
New Line.line70	Phases=3	Bus1=bus70	Bus2=bus71	Geometry=4_240_AL	Length=2.114111	units=m
New Line.line71	Phases=3	Bus1=bus68	Bus2=bus72	Geometry=4_240_AL	Length=13.862010	units=m
New Line.line72	Phases=3	Bus1=bus72	Bus2=bus73	Geometry=4_240_AL	Length=3.000010	units=m
New Line.line73	Phases=3	Bus1=bus72	Bus2=bus74	Geometry=4_240_AL	Length=7.842075	units=m
New Line.line74	Phases=3	Bus1=bus74	Bus2=bus75	Geometry=4_240_AL	Length=2.841358	units=m
New Line.line75	Phases=3	Bus1=bus75	Bus2=bus76	Geometry=4_240_AL	Length=2.248312	units=m
